blazegraph/test/dss/EPRI/DPV/M1/Capacitors.dss
New Capacitor.Cap1 Phases =3 Bus1=0x008C6578 kV=12.47 kvar=1200 conn = wye enabled =true states=0 !closest to sub
new capcontrol.Cap1_ctrl Capacitor=Cap1 element=line.temp2 terminal=1 Delay=45 Delayoff=900
~ type=kvar ON=540 OFF=-840 voltoverride=no vmax=126 vmin=114 ptratio=60

New Capacitor.Cap2 Phases =3 Bus1=0x008ED880 kV=12.47 kvar=1200 conn = wye enabled =true states=0
new capcontrol.Cap2_ctrl Capacitor=Cap2 element=line.temp2 terminal=1 Delay=30 Delayoff=910 
~ type=kvar ON=540 OFF=-840 voltoverride=no vmax=126 vmin=114 ptratio=60

New Capacitor.Cap3 Phases =3 Bus1=0x008DBE00 kV=12.47 kvar=1200 conn = wye enabled =true states=1 !Furthest from sub
new capcontrol.Cap3_ctrl Capacitor=Cap3 element=line.temp2 terminal=1 Delay=15 Delayoff=920
~ type=kvar ON=540 OFF=-840 voltoverride=no vmax=126 vmin=114 ptratio=60

